/*---------------------------------------------------------------------------*\
| =========                 |                                                 |
| \\      /  F ield         | OpenFOAM: The Open Source CFD Toolbox           |
|  \\    /   O peration     | Version:  1.4                                   |
|   \\  /    A nd           | Web:      http://www.openfoam.org               |
|    \\/     M anipulation  |                                                 |
\*---------------------------------------------------------------------------*/

FoamFile
{
    version         2.0;
    format          ascii;

    root            "";
    case            "";
    instance        "";
    local           "";

    class           volScalarField;
    object          nut;
}

// * * * * * * * * * * * * * * * * * * * * * * * * * * * * * * * * * * * * * //


dimensions      [0 2 -1 0 0 0 0];

internalField   uniform 0.0;

boundaryField
{
    top           
    {
        type            calculated;
        value           uniform 0.0;
    }

    bottom          
    {
        type            calculated;
        value           uniform 0.0;
    }

    right           
    {
     //   type            calculated;
     //   value           uniform 0.0;
	type            cyclic;
    }
    
     left           
    {
     //   type            calculated;
     //   value           uniform 0.0;
      type            cyclic;
    }
    
front     
    {
   
    
    type            cyclic;
    }
    
     back       
    {
   
      type            cyclic;
     
    }
    defaultFaces    
    {
        type            empty;
    }
}


// ************************************************************************* //
